<?xml version="1.0" encoding="UTF-8"?>

<!-- generated on 2025-11-23 16:33:50 by Eclipse SUMO netedit Version 1.24.0
-->

<routes xmlns:xsi="http://www.w3.org/2001/XMLSchema-instance" xsi:noNamespaceSchemaLocation="http://sumo.dlr.de/xsd/routes_file.xsd">
    <!-- Vehicles, persons and containers (sorted by depart) -->
    <flow id="f_0" begin="0.00" color="red" from="Node1_2_EB" to="Node2_3_EB" end="3600.00" vehsPerHour="1348.31"/>
    <flow id="f_1" begin="0.00" color="red" from="Node1_2_EB" to="Node2_4_NB" end="3600.00" vehsPerHour="270.07"/>
    <flow id="f_10" begin="0.00" color="green" from="Node2_3_WB" to="Node2_5_SB" end="3600.00" vehsPerHour="270.07"/>
    <flow id="f_11" begin="0.00" from="Node2_4_SB" to="Node2_3_EB" end="3600.00" vehsPerHour="270.07"/>
    <flow id="f_2" begin="0.00" color="red" from="Node1_2_EB" to="Node2_5_SB" end="3600.00" vehsPerHour="180"/>
    <flow id="f_3" begin="0.00" color="blue" from="Node2_5_NB" to="Node2_3_EB" end="3600.00" vehsPerHour="180"/>
    <flow id="f_4" begin="0.00" color="green" from="Node2_3_WB" to="Node2_4_NB" end="3600.00" vehsPerHour="180"/>
    <flow id="f_5" begin="0.00" from="Node2_4_SB" to="Node1_2_WB" end="3600.00" vehsPerHour="180"/>
    <flow id="f_6" begin="0.00" color="blue" from="Node2_5_NB" to="Node2_4_NB" end="3600.00" vehsPerHour="1348.31"/>
    <flow id="f_7" begin="0.00" color="green" from="Node2_3_WB" to="Node1_2_WB" end="3600.00" vehsPerHour="1348.31"/>
    <flow id="f_8" begin="0.00" from="Node2_4_SB" to="Node2_5_SB" end="3600.00" vehsPerHour="1348.31"/>
    <flow id="f_9" begin="0.00" color="blue" from="Node2_5_NB" to="Node1_2_WB" end="3600.00" vehsPerHour="270.07"/>
</routes>
