<?xml version="1.0" encoding="UTF-8"?>

<!-- generated on 2025-12-02 23:50:46 by Eclipse SUMO netedit Version 1.24.0
-->

<additional xmlns:xsi="http://www.w3.org/2001/XMLSchema-instance" xsi:noNamespaceSchemaLocation="http://sumo.dlr.de/xsd/additional_file.xsd">
    <!-- Detectors -->
    <laneAreaDetector id="Node1_2_EB_0" lane="Node1_2_EB_0" pos="232.61" length="150.00" period="300.00" file="e2_0.xml"/>
    <laneAreaDetector id="Node1_2_EB_1" lane="Node1_2_EB_1" pos="232.29" length="150.00" period="300.00" file="e2_2.xml"/>
    <laneAreaDetector id="Node1_2_EB_2" lane="Node1_2_EB_2" pos="232.29" length="150.00" period="300.00" file="e2_3.xml"/>
    <laneAreaDetector id="Node2_3_WB_0" lane="Node2_3_WB_0" pos="233.08" length="150.00" period="300.00" file="e2_4.xml"/>
    <laneAreaDetector id="Node2_3_WB_1" lane="Node2_3_WB_1" pos="232.93" length="150.00" period="300.00" file="e2_0.xml"/>
    <laneAreaDetector id="Node2_3_WB_2" lane="Node2_3_WB_2" pos="233.08" length="150.00" period="300.00" file="e2_2.xml"/>
    <laneAreaDetector id="Node2_4_SB_0" lane="Node2_4_SB_0" pos="232.67" length="150.00" period="300.00" file="e2_4.xml"/>
    <laneAreaDetector id="Node2_4_SB_1" lane="Node2_4_SB_1" pos="233.31" length="150.00" period="300.00" file="e2_3.xml"/>
    <laneAreaDetector id="Node2_4_SB_2" lane="Node2_4_SB_2" pos="233.31" length="150.00" period="300.00" file="e2_5.xml"/>
    <laneAreaDetector id="Node2_5_NB_0" lane="Node2_5_NB_0" pos="233.91" length="150.00" period="300.00" file="e2_5.xml"/>
    <laneAreaDetector id="Node2_5_NB_1" lane="Node2_5_NB_1" pos="233.70" length="150.00" period="300.00" file="e2_3.xml"/>
    <laneAreaDetector id="Node2_5_NB_2" lane="Node2_5_NB_2" pos="233.91" length="150.00" period="300.00" file="e2_6.xml"/>
    <laneAreaDetector id="e2_1" lane="Node1_2_EB_1" pos="232.29" length="150.00" period="300.00" file="e2_1.xml"/>
</additional>
